          77
 Energy =    -2321.80899670 a.u.  Frame:     1 Step:     1 Geom:     1
C          -3.50493300     -0.98573200     -2.86898000
C          -4.30504200      0.27632100     -2.53116900
C          -4.55864700      0.53830500     -1.03625400
C          -5.29943100      1.87809700     -0.85485800
C          -5.50378900      2.31555500      0.60048900
C          -5.32346300     -0.59410500     -0.34507700
O          -4.49504000     -1.77149800     -0.15150800
C          -3.60430700     -1.71346800      0.84437400
O          -3.50254500     -0.80106500      1.64259400
C          -2.72309600     -2.96027900      0.88562900
C          -3.36050300     -4.01711200      1.79402700
N          -1.38669800     -2.60103700      1.36960500
P          -0.26816300     -2.04229100      0.25741700
O          -0.66831300     -2.24543200     -1.15500900
O           1.10326100     -2.75792600      0.70630400
C           2.02293800     -3.20128100     -0.31078100
C           3.12724300     -2.20195700     -0.56919400
C           3.93055800     -1.75045300      0.64476300
C           4.63003200     -0.47629700      0.11502200
C           3.60967700      0.03783800     -0.97330200
O           2.58640900     -0.98493700     -1.07443300
C           4.27188600      0.13202700     -2.29482800
N           4.70509700      0.20889500     -3.36759500
C           2.95725300      1.35418300     -0.67901500
C           2.68688200      2.42403400     -1.53493200
C           2.00974800      3.42066000     -0.81434300
C           1.86391300      2.95144000      0.48933000
N           2.45831200      1.68700800      0.55056600
N           2.53752700      0.93233500      1.68249500
C           1.97563600      1.49329700      2.72390700
N           1.32608300      2.68029200      2.81024900
C           1.26405000      3.40028500      1.69787800
N           0.63300900      4.60682800      1.73851600
O           5.86326700     -0.80975900     -0.47704800
O           4.86924100     -2.76423500      0.99697800
O           0.05561300     -0.51561700      0.72936200
C          -0.58396800      0.58962100      0.17265600
C          -1.27095600      1.44274000      1.03232600
C          -1.84591600      2.60451000      0.51673800
C          -1.74588300      2.89681600     -0.84550500
C          -1.06198000      2.02203900     -1.69265800
C          -0.46927000      0.86411600     -1.18953400
H          -4.05413300     -1.89651800     -2.61355700
H          -3.28701400     -1.01845900     -3.94288200
H          -2.55206800     -1.02095600     -2.33229200
H          -3.77033200      1.15015800     -2.92649400
H          -5.27358100      0.25131600     -3.05382300
H          -3.59123300      0.63158800     -0.53117400
H          -4.71152400      2.64223600     -1.37777600
H          -6.26956800      1.83754500     -1.37176900
H          -5.69505300     -0.28730000      0.63334300
H          -6.15760800     -0.94846100     -0.95650200
H          -4.57909300      2.19823300      1.17415800
H          -5.81094800      3.36632400      0.65125900
H          -6.27839200      1.72952900      1.10636500
H          -2.62269100     -3.34670500     -0.12888100
H          -2.72722300     -4.90768300      1.82304200
H          -3.46959500     -3.63152500      2.81378600
H          -4.35225900     -4.29311600      1.42157700
H          -1.43585200     -2.04560400      2.22019900
H           2.47145600     -4.12322500      0.06768700
H           1.47673600     -3.40962700     -1.23382700
H           3.81683100     -2.65575400     -1.30033800
H           3.25424100     -1.50265200      1.46397500
H           4.76651500      0.28183200      0.89035400
H           5.09613200     -2.65578400      1.93299100
H           6.08538100     -1.69633600     -0.13180800
H           2.96798600      2.45276500     -2.57775700
H           1.66432900      4.37164100     -1.19327600
H           2.03216800      0.90917000      3.63776300
H           0.07871800      4.76404000      2.57040800
H           0.23764300      4.95501400      0.87644600
H          -1.34592400      1.19194200      2.08312300
H           0.08256400      0.18354000     -1.82479800
H          -2.38363000      3.27319700      1.18210700
H          -2.20515700      3.79623100     -1.24595400
H          -0.97563600      2.24406500     -2.75195600
